57

Cr        0.0000000000    0.0000000000    0.0000000000
C        -0.1779371589    1.5550577751   -1.2019396185
C         2.3834473294    1.3035267135    1.0442221394
C         0.7314416502    1.8096108798   -2.2544561091
C         0.1779371589   -1.5550577751   -1.2019396185
C         1.5550577751    0.1779371589    1.2019396185
C        -0.6222453336    3.7280373278   -2.9261010102
C         1.3035267135   -2.3834473294   -1.0442221394
C         1.8096108798   -0.7314416502    2.2544561091
C        -0.7314416502   -1.8096108798   -2.2544561091
C        -1.3035267135    2.3834473294   -1.0442221394
C        -1.8096108798    0.7314416502    2.2544561091
C         0.4934311620    2.9052127584   -3.0978877642
C         1.9229059788    0.9149720461   -2.5301580032
C         3.7280373278    0.6222453336    2.9261010102
C        -1.5550577751   -0.1779371589    1.2019396185
C         2.9052127584   -0.4934311620    3.0978877642
C        -1.5291350059    3.4665182888   -1.8985842031
C        -0.4934311620   -2.9052127584   -3.0978877642
C         0.9149720461   -1.9229059788    2.5301580032
C        -2.3834473294   -1.3035267135    1.0442221394
C         3.4665182888    1.5291350059    1.8985842031
C        -3.7280373278   -0.6222453336    2.9261010102
C         0.6222453336   -3.7280373278   -2.9261010102
C        -2.9052127584    0.4934311620    3.0978877642
C        -0.9149720461    1.9229059788    2.5301580032
C        -3.4665182888   -1.5291350059    1.8985842031
C         1.5291350059   -3.4665182888   -1.8985842031
C        -1.9229059788   -0.9149720461   -2.5301580032
H         2.1801435761    2.0279388046    0.2465961786
H        -0.7827611506    4.5754821530   -3.6008949790
H         2.0279388046   -2.1801435761   -0.2465961786
H        -2.0279388046    2.1801435761   -0.2465961786
H         1.1983378522    3.1145361779   -3.9111611424
H         2.3521808387    0.4897634735   -1.6096649062
H         2.7188600269    1.4693243796   -3.0531402925
H         1.6276656108    0.0630800779   -3.1677052409
H         4.5754821530    0.7827611506    3.6008949790
H         3.1145361779   -1.1983378522    3.9111611424
H        -2.4101365070    4.1018349944   -1.7602143737
H        -1.1983378522   -3.1145361779   -3.9111611424
H         0.4897634735   -2.3521808387    1.6096649062
H         0.0630800779   -1.6276656108    3.1677052409
H         1.4693243796   -2.7188600269    3.0531402925
H        -2.1801435761   -2.0279388046    0.2465961786
H         4.1018349944    2.4101365070    1.7602143737
H        -4.5754821530   -0.7827611506    3.6008949790
H         0.7827611506   -4.5754821530   -3.6008949790
H        -3.1145361779    1.1983378522    3.9111611424
H        -0.0630800779    1.6276656108    3.1677052409
H        -1.4693243796    2.7188600269    3.0531402925
H        -0.4897634735    2.3521808387    1.6096649062
H        -4.1018349944   -2.4101365070    1.7602143737
H         2.4101365070   -4.1018349944   -1.7602143737
H        -2.3521808387   -0.4897634735   -1.6096649062
H        -2.7188600269   -1.4693243796   -3.0531402925
H        -1.6276656108   -0.0630800779   -3.1677052409
